/*--------------------------------*- C++ -*----------------------------------*\
  =========                 |				
  \\      /  F ield         | OpenFOAM: The Open Source CFD Toolbox
   \\    /   O peration     | Website:  https://openfoam.org
    \\  /    A nd           | Version:  10                                  	
     \\/     M anipulation  |
\*---------------------------------------------------------------------------*/
FoamFile
{
    format      ascii;
    class       dictionary;
    object      blockMeshDict;
}
// * * * * * * * * * * * * * * * * * * * * * * * * * * * * * * * * * * * * * //

convertToMeters 1;

xmin -40.0;
xmax  120.0;
ymin -60.0;
ymax  60.0;
zmin  0.0;
zmax  88.0;

dx 1.0;
dy 1.0;
dz 1.0;

lx #calc "$xmax - $xmin";
ly #calc "$ymax - $ymin";
lz #calc "$zmax - $zmin";

xcells #calc "abs(($lx)/($dx))";
ycells #calc "abs(($ly)/($dy))";
zcells #calc "abs(($lz)/($dz))";

vertices        
(
    ($xmin  $ymin  $zmin)
    ($xmax  $ymin  $zmin)
    ($xmax  $ymax  $zmin)
    ($xmin  $ymax  $zmin)
    ($xmin  $ymin  $zmax)
    ($xmax  $ymin  $zmax)
    ($xmax  $ymax  $zmax)
    ($xmin  $ymax  $zmax)
);

blocks          
(
    hex (0 1 2 3 4 5 6 7) ($xcells $ycells $zcells) simpleGrading (1 1 1)
);

edges           
(
);

boundary        
(
    inlet
    {
        type patch;
	faces
	( 
            (0 4 7 3)
	);
    }

    outlet
    {
        type patch;
	faces
	( 
            (2 6 5 1)
	);
    }

    symmetry1
    {
        type symmetry;
	faces
	( 
            (1 5 4 0)
	);
    }

    symmetry2
    {
        type symmetry;
	faces
	( 
            (3 7 6 2)
	);
    }

    bottom
    {
        type wall;
	faces
	( 
            (0 3 2 1)
	);
    }

    top
    {
        type wall;
	faces
	( 
            (4 5 6 7)
	);
    }

);

mergePatchPairs 
(
);

// ************************************************************************* //
