/*--------------------------------*- C++ -*----------------------------------*\
| =========                 |                                                 |
| \\      /  F ield         | OpenFOAM: The Open Source CFD Toolbox           |
|  \\    /   O peration     | Version:  2312                                  |
|   \\  /    A nd           | Website:  www.openfoam.com                      |
|    \\/     M anipulation  |                                                 |
\*---------------------------------------------------------------------------*/
FoamFile
{
    version     2.0;
    format      ascii;
    arch        "LSB;label=32;scalar=64";
    class       featureEdgeMesh;
    location    "constant/triSurface";
    object      cylinder.eMesh;
}
// * * * * * * * * * * * * * * * * * * * * * * * * * * * * * * * * * * * * * //


// points:

98
(
(1 -2.4492937e-16 0)
(0.99179 0.12787716 0)
(0.96729487 0.25365457 0)
(0.92691678 0.375267 0)
(0.8713187 0.49071756 0)
(0.8014136 0.59811056 0)
(0.71834934 0.69568253 0)
(0.6234898 0.7818315 0)
(0.51839256 0.85514277 0)
(0.40478334 0.91441262 0)
(0.2845276 0.95866787 0)
(0.1595999 0.98718178 0)
(0.032051578 0.99948621 0)
(-0.096023023 0.99537909 0)
(-0.22252093 0.9749279 0)
(-0.34536505 0.9384684 0)
(-0.4625383 0.8865993 0)
(-0.57211667 0.82017225 0)
(-0.67230088 0.74027801 0)
(-0.76144594 0.64822841 0)
(-0.8380881 0.54553491 0)
(-0.90096885 0.43388373 0)
(-0.94905573 0.31510821 0)
(-0.98155916 0.19115864 0)
(-0.99794537 0.064070217 0)
(-0.99794537 -0.064070217 0)
(-0.98155916 -0.19115864 0)
(-0.94905573 -0.31510821 0)
(-0.90096885 -0.43388373 0)
(-0.8380881 -0.54553491 0)
(-0.76144594 -0.64822841 0)
(-0.67230088 -0.74027801 0)
(-0.57211667 -0.82017225 0)
(-0.4625383 -0.8865993 0)
(-0.34536505 -0.9384684 0)
(-0.22252093 -0.9749279 0)
(-0.096023023 -0.99537909 0)
(0.032051578 -0.99948621 0)
(0.1595999 -0.98718178 0)
(0.2845276 -0.95866787 0)
(0.40478334 -0.91441262 0)
(0.51839256 -0.85514277 0)
(0.6234898 -0.7818315 0)
(0.71834934 -0.69568253 0)
(0.8014136 -0.59811056 0)
(0.8713187 -0.49071756 0)
(0.92691678 -0.375267 0)
(0.96729487 -0.25365457 0)
(0.99179 -0.12787716 0)
(0.99179 0.12787716 20)
(1 -2.4492937e-16 20)
(0.96729487 0.25365457 20)
(0.92691678 0.375267 20)
(0.8713187 0.49071756 20)
(0.8014136 0.59811056 20)
(0.71834934 0.69568253 20)
(0.6234898 0.7818315 20)
(0.51839256 0.85514277 20)
(0.40478334 0.91441262 20)
(0.2845276 0.95866787 20)
(0.1595999 0.98718178 20)
(0.032051578 0.99948621 20)
(-0.096023023 0.99537909 20)
(-0.22252093 0.9749279 20)
(-0.34536505 0.9384684 20)
(-0.4625383 0.8865993 20)
(-0.57211667 0.82017225 20)
(-0.67230088 0.74027801 20)
(-0.76144594 0.64822841 20)
(-0.8380881 0.54553491 20)
(-0.90096885 0.43388373 20)
(-0.94905573 0.31510821 20)
(-0.98155916 0.19115864 20)
(-0.99794537 0.064070217 20)
(-0.99794537 -0.064070217 20)
(-0.98155916 -0.19115864 20)
(-0.94905573 -0.31510821 20)
(-0.90096885 -0.43388373 20)
(-0.8380881 -0.54553491 20)
(-0.76144594 -0.64822841 20)
(-0.67230088 -0.74027801 20)
(-0.57211667 -0.82017225 20)
(-0.4625383 -0.8865993 20)
(-0.34536505 -0.9384684 20)
(-0.22252093 -0.9749279 20)
(-0.096023023 -0.99537909 20)
(0.032051578 -0.99948621 20)
(0.1595999 -0.98718178 20)
(0.2845276 -0.95866787 20)
(0.40478334 -0.91441262 20)
(0.51839256 -0.85514277 20)
(0.6234898 -0.7818315 20)
(0.71834934 -0.69568253 20)
(0.8014136 -0.59811056 20)
(0.8713187 -0.49071756 20)
(0.92691678 -0.375267 20)
(0.96729487 -0.25365457 20)
(0.99179 -0.12787716 20)
)


// edges:

98
(
(49 50)
(51 49)
(52 51)
(53 52)
(54 53)
(55 54)
(56 55)
(57 56)
(58 57)
(59 58)
(60 59)
(61 60)
(62 61)
(63 62)
(64 63)
(65 64)
(66 65)
(67 66)
(68 67)
(69 68)
(70 69)
(71 70)
(72 71)
(73 72)
(74 73)
(75 74)
(76 75)
(77 76)
(78 77)
(79 78)
(80 79)
(81 80)
(82 81)
(83 82)
(84 83)
(85 84)
(86 85)
(87 86)
(88 87)
(89 88)
(90 89)
(91 90)
(92 91)
(93 92)
(94 93)
(95 94)
(96 95)
(97 96)
(50 97)
(0 1)
(1 2)
(2 3)
(3 4)
(4 5)
(5 6)
(6 7)
(7 8)
(8 9)
(9 10)
(10 11)
(11 12)
(12 13)
(13 14)
(14 15)
(15 16)
(16 17)
(17 18)
(18 19)
(19 20)
(20 21)
(21 22)
(22 23)
(23 24)
(24 25)
(25 26)
(26 27)
(27 28)
(28 29)
(29 30)
(30 31)
(31 32)
(32 33)
(33 34)
(34 35)
(35 36)
(36 37)
(37 38)
(38 39)
(39 40)
(40 41)
(41 42)
(42 43)
(43 44)
(44 45)
(45 46)
(46 47)
(47 48)
(48 0)
)

// * * * * * * * * * * * * * * * * * * * * * * * * * * * * * * * * * * * * * //


// ************************************************************************* //
