/*--------------------------------*- C++ -*----------------------------------*\
| =========                 |                                                 |
| \\      /  F ield         | OpenFOAM: The Open Source CFD Toolbox           |
|  \\    /   O peration     | Version:  v2012                                 |
|   \\  /    A nd           | Website:  www.openfoam.com                      |
|    \\/     M anipulation  |                                                 |
\*---------------------------------------------------------------------------*/
FoamFile
{
    version     2.0;
    format      ascii;
    class       dictionary;
    location    "system";
    object      controlDict;
}
// * * * * * * * * * * * * * * * * * * * * * * * * * * * * * * * * * * * * * //

application     pimpleFoam;

startFrom       latestTime;

startTime       0;

stopAt          endTime;

endTime         0.01;

deltaT          0.002;

writeControl    timeStep;

writeInterval   250;

purgeWrite      0;

writeFormat     ascii;

writePrecision  8;

timeFormat      general;

timePrecision   8;

runTimeModifiable true;

functions
{
  chimney_forces
  {
    type          forces;

    libs          ("libforces.so");

    writeControl  timeStep;
    timeInterval  1;

    patches       (cylinder);
    rho           rhoInf;     // Indicates incompressible
    rhoInf        1.225;

    log           true;

    CofR          (0.0 0.0 0.0);    // Center of rotation
    pitchAxis     (0 1 0);
  }

  yPlus1
  {
    type            yPlus;
    libs            (fieldFunctionObjects);
    writePrecision  8;
    writeToFile     true;
    enabled         true;
    log             true;
    writeControl    timeStep;
    writeInterval   1;
  }
}

// ************************************************************************* //
